power-flow-agent/results/ieee14/2026-09-23/gpt-4o-mini/single_call_cot/traces/36_case14-plain-020-s0.transcript.txt
==============================================================================
TRANSCRIPT  single_call:cot  |  openrouter:openai/gpt-4o-mini  |  case14  |  case14-plain-020-s0  run 0
==============================================================================
date: 2026-09-23   seed: 0   difficulty: plain   tool variant: load_split

[system]   (hash 23e5d9b407f9, from methods/single_call_cot/method.json prompt_files)
You are a power system power-flow analysis assistant. You help the user complete power system analysis tasks from natural-language requests.

## What you can do
You complete tasks by calling tool functions:
1. Load an IEEE standard test system (14, 30, 57, 118, 300 buses)
2. Run AC power flow
3. Modify the load at a bus and re-solve
4. Disconnect or reconnect a line and re-solve
5. Query the network status
6. Run an N-1 contingency analysis (disconnect branches one at a time and rank the worst cases)
7. Generate remedial-action suggestions (what-if load shedding or voltage adjustment) to reduce violation risk

## Key rules
- Never fabricate any numerical result. Every voltage, power, loss, or loading value must come from a tool return value.
- If a tool reports an error or a non-converged power flow, say so explicitly and do not report numbers for that state.
- If the request is ambiguous, state the interpretation you are using.
- Bus and line identifiers in the request are MATPOWER 1-based ids; pass them to the tools as given, unless the request itself states a different indexing convention for that identifier (e.g. "(0-based)"), in which case convert it to the MATPOWER 1-based id before calling any tool.
- After a network modification, re-solve before reporting any value.
- Always reply in English.

## Reply format
After each analysis, reply in this structure:
1. One-sentence summary
2. Key numbers (total load, total generation, total losses, voltage range) taken from the tool outputs
3. Violations, if any
4. Suggested next step

## Single-call mode
You are evaluated in single-call mode: the network named in the user message is already loaded. Read the request, decide which tools to call and with which arguments, and emit all tool calls in this one response. Do not ask clarifying questions, do not plan across turns, and do not fabricate numbers.

[user]
Load the 14-bus test case (case14) and run the power flow, then report the bus with the lowest voltage magnitude.

--- round 1 ---
[assistant]   (2605 in / 40 out tokens, 1.2 s)
(no text)
tool_call  run_powerflow()
tool_call  get_status()
[tool run_powerflow]   (gate: pass)
{"case_name": "case14", "converged": true, "bus_voltages": [{"bus_id": 1, "vm_pu": 1.06, "va_deg": 0.0, "is_violation": true, "violation_type": "overvoltage"}, {"bus_id": 2, "vm_pu": 1.0449999999999997, "va_deg": -5.160966232053267, "is_violation": false, "violation_type": null}, {"bus_id": 3, "vm_pu": 1.01, "va_deg": -12.958813127509941, "is_violation": false, "violation_type": null}, {"bus_id": 4, "vm_pu": 1.016780472765977, "va_deg": -10.651156163549766, "is_violation": false, "violation_type": null}, {"bus_id": 5, "vm_pu": 1.0187551889193258, "va_deg": -9.056063987933419, "is_violation": false, "violation_type": null}, {"bus_id": 6, "vm_pu": 1.0700000000000003, "va_deg": -14.617431293826973, "is_violation": true, "violation_type": "overvoltage"}, {"bus_id": 7, "vm_pu": 1.0609157998558956, "va_deg": -13.737671074150992, "is_violation": true, "violation_type": "overvoltage"}, {"bus_id": 8, "vm_pu": 1.0899999999999996, "va_deg": -13.737671074150992, "is_violation": true, "violation_type": "overvoltage"}, {"bus_id": 9, "vm_pu": 1.055142033951695, "va_deg": -15.33696658191659, "is_violation": true, "violation_type": "overvoltage"}, {"bus_id": 10, "vm_pu": 1.0499616681296677, "va_deg": -15.509661675404942, "is_violation": false, "violation_type": null}, {"bus_id": 11, "vm_pu": 1.0563389495503304, "va_deg": -15.196100821087263, "is_violation": true, "violation_type": "overvoltage"}, {"bus_id": 12, "vm_pu": 1.0551537470915544, "va_deg": -15.478237135958645, "is_violation": true, "violation_type": "overvoltage"}, {"bus_id": 13, "vm_pu": 1.0491502754209039, "va_deg": -15.596178415565838, "is_violation": false, "violation_type": null}, {"bus_id": 14, "vm_pu": 1.0336443538344458, "va_deg": -16.5009615140261, "is_violation": false, "violation_type": null}], "line_flows": [{"line_id": 0, "from_bus": 1, "to_bus": 2, "p_from_mw": 162.2782633198512, "q_from_mvar": -21.65620559408434, "loading_percent": 1.5601001340428384, "is_violation": false}, {"line_id": 1, "from_bus": 1, "to_bus": 5, "p_from_mw": 77.84988075723443, "q_from_mvar": 4.014162881568663, "loading_percent": 0.7432858666869775, "is_violation": false}, {"line_id": 2, "from_bus": 2, "to_bus": 3, "p_from_mw": 73.73618560334445, "q_from_mvar": 3.511468774805431, "loading_percent": 0.7141103164852058, "is_violation": false}, {"line_id": 3, "from_bus": 2, "to_bus": 4, "p_from_mw": 57.800643183276776, "q_from_mvar": -1.4164844394965956, "loading_percent": 0.5588709780103251, "is_violation": false}, {"line_id": 4, "from_bus": 2, "to_bus": 5, "p_from_mw": 42.645367228315465, "q_from_mvar": 1.330496731575827, "loading_percent": 0.41389921421628867, "is_violation": false}, {"line_id": 5, "from_bus": 3, "to_bus": 4, "p_from_mw": -22.15441639799123, "q_from_mvar": 4.5101064482348425, "loading_percent": 0.22882738260761823, "is_violation": false}, {"line_id": 6, "from_bus": 4, "to_bus": 5, "p_from_mw": -63.318465122416, "q_from_mvar": 16.258729770779155, "loading_percent": 0.6494313340796147, "is_violation": false}, {"line_id": 7, "from_bus": 6, "to_bus": 11, "p_from_mw": 7.54251088640964, "q_from_mvar": 3.7763163215136544, "loading_percent": 0.07962850976759854, "is_violation": false}, {"line_id": 8, "from_bus": 6, "to_bus": 12, "p_from_mw": 7.830447433253434, "q_from_mvar": 2.4973630493476886, "loading_percent": 0.07758941502277202, "is_violation": false}, {"line_id": 9, "from_bus": 6, "to_bus": 13, "p_from_mw": 18.666596599615882, "q_from_mvar": 7.772347894103692, "loading_percent": 0.1908814287048324, "is_violation": false}, {"line_id": 10, "from_bus": 9, "to_bus": 10, "p_from_mw": 5.59603401728523, "q_from_mvar": 4.367994834651368, "loading_percent": 0.06795908150213374, "is_violation": false}, {"line_id": 11, "from_bus": 9, "to_bus": 14, "p_from_mw": 9.973133736938362, "q_from_mvar": 3.7840496402749912, "loading_percent": 0.10211545570751901, "is_violation": false}, {"line_id": 12, "from_bus": 10, "to_bus": 11, "p_from_mw": -3.9287929268153032, "q_from_mvar": -1.7991968655695838, "loading_percent": 0.041571229122272235, "is_violation": false}, {"line_id": 13, "from_bus": 12, "to_bus": 13, "p_from_mw": 2.090446019018749, "q_from_mvar": 0.8598747471685909, "loading_percent": 0.021638734091953802, "is_violation": false}, {"line_id": 14, "from_bus": 13, "to_bus": 14, "p_from_mw": 5.829251446330228, "q_from_mvar": 1.8502712108167376, "loading_percent": 0.05888223002083942, "is_violation": false}, {"line_id": 100000, "from_bus": 4, "to_bus": 7, "p_from_mw": 28.399413093722963, "q_from_mvar": -9.805891535185024, "loading_percent": 0.29847299342480393, "is_violation": false}, {"line_id": 100001, "from_bus": 4, "to_bus": 9, "p_from_mw": 16.2621074111793, "q_from_mvar": -0.4351195520571272, "loading_percent": 0.16161059817222578, "is_violation": false}, {"line_id": 100002, "from_bus": 5, "to_bus": 6, "p_from_mw": 44.97586007107747, "q_from_mvar": 12.197117580642814, "loading_percent": 0.4620454041286708, "is_violation": false}, {"line_id": 100003, "from_bus": 7, "to_bus": 8, "p_from_mw": 3.957026516949791e-14, "q_from_mvar": -17.51682512577404, "loading_percent": 0.16677820007686248, "is_violation": false}, {"line_id": 100004, "from_bus": 7, "to_bus": 9, "p_from_mw": 28.399413093342847, "q_from_mvar": 5.964493262632221, "loading_percent": 0.27629065583604956, "is_violation": false}], "total_generation_mw": 278.8685383651922, "total_load_mw": 264.7574324416785, "total_loss_mw": 14.11110593018695, "voltage_violations": [{"bus_id": 1, "vm_pu": 1.06, "va_deg": 0.0, "is_violation": true, "violation_type": "overvoltage"}, {"bus_id": 6, "vm_pu": 1.0700000000000003, "va_deg": -14.617431293826973, "is_violation": true, "violation_type": "overvoltage"}, {"bus_id": 7, "vm_pu": 1.0609157998558956, "va_deg": -13.737671074150992, "is_violation": true, "violation_type": "overvoltage"}, {"bus_id": 8, "vm_pu": 1.0899999999999996, "va_deg": -13.737671074150992, "is_violation": true, "violation_type": "overvoltage"}, {"bus_id": 9, "vm_pu": 1.055142033951695, "va_deg": -15.33696658191659, "is_violation": true, "violation_type": "overvoltage"}, {"bus_id": 11, "vm_pu": 1.0563389495503304, "va_deg": -15.196100821087263, "is_violation": true, "violation_type": "overvoltage"}, {"bus_id": 12, "vm_pu": 1.0551537470915544, "va_deg": -15.478237135958645, "is_violation": true, "violation_type": "overvoltage"}], "thermal_violations": [], "summary_text": "", "solver_backend": "pandapower", "llm_prompt": null, "llm_response": null}
[tool get_status]   (gate: not applied)
{"active_case": "case14", "network_info": {"case_name": "case14", "n_buses": 14, "n_generators": 5, "n_lines": 20, "n_loads": 11, "total_load_mw": 264.7574324416785, "total_gen_capacity_mw": 772.4000000000001}, "has_last_result": true, "last_result_summary": {"converged": true, "total_load_mw": 264.7574324416785, "total_generation_mw": 278.8685383651922, "total_loss_mw": 14.11110593018695, "n_voltage_violations": 7, "n_thermal_violations": 0, "solver_backend": "pandapower"}}

--- round 2 ---
[assistant final]   (4946 in / 131 out tokens, 2.9 s)
The power flow analysis has been successfully completed. 

The bus with the lowest voltage magnitude is bus 14, with a voltage of 1.0336 pu.

Key numbers:
- Total load: 264.76 MW
- Total generation: 278.87 MW
- Total losses: 14.11 MW
- Voltage range: 1.0336 pu (bus 14) to 1.09 pu (bus 8)

Violations:
- There are 7 voltage violations, including overvoltage at several buses.

Suggested next step:
Consider running a contingency analysis or recommending remedial actions to address the voltage violations.
